version 2
1
9
.tran 10u 500m 0{return}.kicad adjustpaths{return}.save all{return}.probe alli
4
1
V(/BOOT0)
 
1
V(/NRST)
 
1
V(/USB_DTR)
 
1
V(/USB_RTS)
 
