version 2
1
9
.tran 1m 1 0{return}.kicad adjustpaths{return}.save all{return}.probe alli
0
